This is a copy of the % SEAWATER Library
created by CSIRO.
It is useful to run classic oceanographic calculation
